tests/data/power_flow/pandapower/components/pp-asym-line/pgm_asym_output.json
{
  "line": [
    {
      "id": 3,
      "energized": 1,
      "loading": 0.0075295919081588445,
      "p_from": [
        3346.574815168418,
        3346.574815138651,
        3346.574815168671
      ],
      "q_from": [
        -45522.88059482148,
        -45522.88059489474,
        -45522.88059485707
      ],
      "i_from": [
        7.529591908147151,
        7.529591908158845,
        7.529591908153011
      ],
      "s_from": [
        45645.7251080963,
        45645.725108167186,
        45645.725108131825
      ],
      "p_to": [
        -3335.7497927966397,
        -3335.7497927788204,
        -3335.749792806132
      ],
      "q_to": [
        33983.9521740018,
        33983.952174063175,
        33983.95217403512
      ],
      "i_to": [
        5.631748839212494,
        5.631748839222278,
        5.631748839218116
      ],
      "s_to": [
        34147.27268823946,
        34147.2726882988,
        34147.272688273544
      ]
    },
    {
      "id": 6,
      "energized": 1,
      "loading": 0.0037405975068510247,
      "p_from": [
        3335.5229982786705,
        3335.522998255142,
        3335.5229982582578
      ],
      "q_from": [
        -22433.94687751196,
        -22433.94687752678,
        -22433.946877464616
      ],
      "i_from": [
        3.7405975068491792,
        3.740597506851025,
        3.740597506840959
      ],
      "s_from": [
        22680.55744850806,
        22680.557448519263,
        22680.55744845823
      ],
      "p_to": [
        -3333.560158665327,
        -3333.560158647543,
        -3333.5601586447815
      ],
      "q_to": [
        10884.908400639491,
        10884.908400635877,
        10884.908400581418
      ],
      "i_to": [
        1.8773703214568078,
        1.8773703214553774,
        1.8773703214466582
      ],
      "s_to": [
        11383.929647610836,
        11383.929647602172,
        11383.929647549292
      ]
    },
    {
      "id": 7,
      "energized": 1,
      "loading": 0.0019048879694671004,
      "p_from": [
        0.22679451083007607,
        0.22679451083055152,
        0.2267945108299733
      ],
      "q_from": [
        -11550.005296488953,
        -11550.005296488967,
        -11550.00529648896
      ],
      "i_from": [
        1.9048879694670988,
        1.9048879694671004,
        1.9048879694670995
      ],
      "s_from": [
        11550.005298715609,
        11550.005298715621,
        11550.005298715614
      ],
      "p_to": [
        0.0,
        0.0,
        0.0
      ],
      "q_to": [
        0.0,
        -0.0,
        0.0
      ],
      "i_to": [
        0.0,
        0.0,
        0.0
      ],
      "s_to": [
        0.0,
        0.0,
        0.0
      ]
    },
    {
      "id": 8,
      "energized": 1,
      "loading": 0.0019050174125231167,
      "p_from": [
        0.0,
        0.0,
        0.0
      ],
      "q_from": [
        0.0,
        -0.0,
        0.0
      ],
      "i_from": [
        0.0,
        0.0,
        0.0
      ],
      "s_from": [
        0.0,
        0.0,
        0.0
      ],
      "p_to": [
        0.22682533466065113,
        0.22682533466130786,
        0.22682533466015137
      ],
      "q_to": [
        -11551.575067314121,
        -11551.575067314134,
        -11551.575067314121
      ],
      "i_to": [
        1.9050174125231156,
        1.9050174125231167,
        1.9050174125231156
      ],
      "s_to": [
        11551.575069541077,
        11551.575069541092,
        11551.575069541077
      ]
    }
  ],
  "node": [
    {
      "id": 1,
      "energized": 1,
      "u_pu": [
        1.0000000000000013,
        1.0000000000000013,
        1.000000000000001
      ],
      "u": [
        6062.17782649108,
        6062.17782649108,
        6062.177826491078
      ],
      "u_angle": [
        -2.3282102545802735e-16,
        -2.0943951023931957,
        2.0943951023931953
      ]
    },
    {
      "id": 2,
      "energized": 1,
      "u_pu": [
        1.000193603469586,
        1.0001936034695866,
        1.0001936034695862
      ],
      "u": [
        6063.351485151527,
        6063.351485151532,
        6063.351485151529
      ],
      "u_angle": [
        -0.00028856634027537193,
        -2.094683668733471,
        2.09410653605292
      ]
    },
    {
      "id": 5,
      "energized": 1,
      "u_pu": [
        1.0002615697325454,
        1.000261569732546,
        1.0002615697325454
      ],
      "u": [
        6063.7635087237895,
        6063.763508723794,
        6063.7635087237895
      ],
      "u_angle": [
        -0.0004199857897978852,
        -2.0948150881829934,
        2.0939751166033975
      ]
    }
  ],
  "source": [
    {
      "id": 4,
      "energized": 1,
      "p": [
        3303.3331707343277,
        2438.3886165436675,
        11521.122841144514
      ],
      "q": [
        -44960.74655382332,
        -47329.86964425658,
        -43522.385031599624
      ],
      "i": [
        7.436590435027351,
        7.817758085626402,
        7.4266192862828895
      ],
      "s": [
        45081.93363991844,
        47392.639719555715,
        45021.48676309512
      ],
      "pf": [
        0.07327399035540358,
        0.05145078710476451,
        0.2559027626468474
      ]
    }
  ],
  "sym_load": [
    {
      "id": 9,
      "energized": 1,
      "p": [
        3333.333333333333,
        3333.333333333333,
        3333.333333333333
      ],
      "q": [
        666.6666666666666,
        666.6666666666666,
        666.6666666666666
      ],
      "i": [
        0.5606000856571391,
        0.5606000856571388,
        0.5606000856571391
      ],
      "s": [
        3399.34634239519,
        3399.34634239519,
        3399.34634239519
      ],
      "pf": [
        0.9805806756909201,
        0.9805806756909201,
        0.9805806756909201
      ]
    }
  ]
}